
No compatibility mode selected!


Circuit: ** sch_path: /home/rjridle/test_current_mirror.sch

binary raw file "/home/rjridle/test_current_mirror.raw"
Doing analysis at TEMP = 27.000000 and TNOM = 27.000000

No. of Data Columns : 11  

Initial Transient Solution
--------------------------

Node                                   Voltage
----                                   -------
net2                                  -1.20565
vdd                                  -0.118631
net1                                         0
vdrain_current#branch                   -3e-06


No. of Data Rows : 59

Total analysis time (seconds) = 0.002

Total elapsed time (seconds) = 36.287 

Total DRAM available = 128721.316 MB.
DRAM currently available = 44284.906 MB.
Maximum ngspice program size =  738.938 MB.
Current ngspice program size =  658.535 MB.

Shared ngspice pages =    4.145 MB.
Text (code) pages =    7.453 MB.
Stack = 0 bytes.
Library pages =  662.414 MB.

